/*--------------------------------*- C++ -*----------------------------------*\
| =========                 |                                                 |
| \\      /  F ield         | OpenFOAM: The Open Source CFD Toolbox           |
|  \\    /   O peration     | Version:  7                                     |
|   \\  /    A nd           | Web:      www.OpenFOAM.com                      |
|    \\/     M anipulation  |                                                 |
\*---------------------------------------------------------------------------*/
FoamFile
{
    version     2.0;
    format      ascii;
    class       dictionary;
    object      snappyHexMeshDict;
}
// * * * * * * * * * * * * * * * * * * * * * * * * * * * * * * * * * * * * * //
castellatedMesh true;
snap            true;
addLayers       false;

geometry
{
    "funnelCFD.stl"
    {
        type    triSurfaceMesh;
        name    walls;
    }
    
    "sensor.stl"
    {
        type    triSurfaceMesh;
        name    walls_sensor;
    }
};

castellatedMeshControls
{
    maxLocalCells 1000000;
    maxGlobalCells 20000000;
    minRefinementCells 10;
    maxLoadUnbalance 0.10;

    nCellsBetweenLevels 1;

    features 
    (
        { 
            file "allFeatureEdges.eMesh"; 
            level 3;
        }
    );

    refinementSurfaces
    {
        walls
        {
            level (3 3);
        }
        
        walls_sensor
        {
            level (3 3);
        }
    }

    resolveFeatureAngle 30;

    refinementRegions
    {
    }

    locationInMesh (0 -0.1 0);
    allowFreeStandingZoneFaces true;
}

snapControls
{
    nSmoothPatch 3;
    tolerance 4.0;
    nSolveIter 30;
    nRelaxIter 10;
    nFeatureSnapIter 10;
    //nFaceSplitInterval 15;
    implicitFeatureSnap true;
    explicitFeatureSnap false;
    multiRegionFeatureSnap false;
}

addLayersControls
{
    relativeSizes false;

    layers
    {
        walls
        {
            nSurfaceLayers 2;
        }
        
        walls_sensor
        {
            nSurfaceLayers 2;
        }
    }

    meshShrinker    displacementMotionSolver;
    solver          displacementLaplacian;
    displacementLaplacianCoeffs
    {
        diffusivity     inverseDistance (walls);
    }

    expansionRatio 1.0;
    finalLayerThickness 0.1;
    minThickness 1e-6;
    nGrow 5;
    featureAngle 180;
    nRelaxIter 50;
    nSmoothSurfaceNormals 3;
    nSmoothNormals 5;
    nSmoothThickness 10;
    maxFaceThicknessRatio 0.5;
    maxThicknessToMedialRatio 0.3;
    minMedianAxisAngle 90;
    nBufferCellsNoExtrude 1;
    nLayerIter 100;
}

meshQualityControls
{
    maxNonOrtho 65;
    maxBoundarySkewness 20;
    maxInternalSkewness 4;
    maxConcave 80;
    minVol -1;
    minTetQuality -1e+30;
    minArea -1;
    minTwist 0.02;
    minDeterminant 0.001;
    minFaceWeight 0.05;
    minVolRatio 0.01;
    minTriangleTwist -1;
    nSmoothScale 4;
    errorReduction 0.75;
    relaxed
    {
        maxNonOrtho 75;
    }
}

mergeTolerance 1e-6;

// ************************************************************************* //
